   14
scf done:  -231.855839
 C    -1.431114    -0.075461    -0.110781
 C    -0.729836     0.263114     1.196178
 C     0.719214    -0.263160     1.202562
 C     1.432059     0.075628    -0.098070
 C     0.736877     0.122138    -1.261538
 C    -0.725634    -0.121818    -1.268041
 H    -1.286299    -0.151419     2.054099
 H     1.268049     0.151234     2.065449
 H     2.517944     0.222167    -0.091327
 H     1.244984     0.325673    -2.210264
 H    -1.225303    -0.325238    -2.221263
 H    -2.517014    -0.222015    -0.113695
 H     0.712687    -1.366168     1.325036
 H    -0.724399     1.366101     1.318880
